/*--------------------------------*- C++ -*----------------------------------*\
| =========                 |                                                 |
| \\      /  F ield         | OpenFOAM: The Open Source CFD Toolbox           |
|  \\    /   O peration     | Version:  3.0.x                                 |
|   \\  /    A nd           | Web:      www.OpenFOAM.org                      |
|    \\/     M anipulation  |                                                 |
\*---------------------------------------------------------------------------*/
FoamFile
{
    version     2.0;
    format      ascii;
    class       dictionary;
    location    "system";
    object      controlDict;
}
// * * * * * * * * * * * * * * * * * * * * * * * * * * * * * * * * * * * * * //

/*libs
(
    "libpowerLawVFTThermo.so"
);*/

application     compressibleInterFoam;

startFrom       startTime;

startTime       0;

stopAt          endTime;

endTime         3000.0;

deltaT          1;

writeControl    adjustableRunTime;

writeInterval   100;

purgeWrite      0;

writeFormat     ascii;

writePrecision  8;

writeCompression compressed;

timeFormat      general;

timePrecision   10;

runTimeModifiable yes;

adjustTimeStep  yes;

maxCo           0.25;

maxDeltaT       1;
maxAlphaCo      1;


functions
{
    inletFlux
    {
        type            surfaceRegion;
	regionType	patch;
        functionObjectLibs ("libfieldFunctionObjects.so");
        writeControl   adjustableRunTime;
        writeInterval   0.1;
        log             true;
        // Output field values as well
        valueOutput     false;
        source          patch;
        writeFields     no;
        name      	inlet;
        operation       sum;

        fields
        (
            rhoPhi
        );
    }

    outletFlux
    {
        $inletFlux;
        sourceName      outlet;
    }

    atmosphereFlux
    {
        $inletFlux;
        sourceName      atm;
    }
}

// ************************************************************************* //
