/*--------------------------------*- C++ -*----------------------------------*\
| =========                 |                                                 |
| \\      /  F ield         | OpenFOAM: The Open Source CFD Toolbox           |
|  \\    /   O peration     | Version:  3.0.x                                 |
|   \\  /    A nd           | Web:      www.OpenFOAM.org                      |
|    \\/     M anipulation  |                                                 |
\*---------------------------------------------------------------------------*/
FoamFile
{
    version     2.0;
    format      ascii;
    class       volVectorField;
    object      U;
}
// * * * * * * * * * * * * * * * * * * * * * * * * * * * * * * * * * * * * * //

dimensions      [0 1 -1 0 0 0 0];

internalField   uniform (1 0 0);

boundaryField
{
    walls
    {
        type            fixedValue;
        value           uniform (0 0 0);
    }
    atm
    {
//        type            inletOutlet;
//        inletValue      uniform (0 0 0);
//        value           $internalField;
        type            pressureInletOutletVelocity;
        value           uniform (0 0 0);
    }
    floor
    {
        type            fixedValue;
        value           uniform (0 0 0);
    }
    outlet
    {
//  type            inletOutlet;
//  inletValue	uniform (0 0 0);
//	value		$internalField;
        type            pressureInletOutletVelocity;
        value           uniform (0 0 0);
    }
    inlet
    {
        type            flowRateInletVelocity;
        volumetricFlowRate constant 0.1;
    }
    frontAndBack
    {
        type            empty;
    }
}

// ************************************************************************* //
