/*--------------------------------*- C++ -*----------------------------------*\
| =========                 |                                                 |
| \\      /  F ield         | OpenFOAM: The Open Source CFD Toolbox           |
|  \\    /   O peration     | Version:  4.x                                   |
|   \\  /    A nd           | Web:      www.OpenFOAM.org                      |
|    \\/     M anipulation  |                                                 |
\*---------------------------------------------------------------------------*/
FoamFile
{
    version     2.0;
    format      ascii;
    class       dictionary;
    location    "system";
    object      fvSolution;
}
// * * * * * * * * * * * * * * * * * * * * * * * * * * * * * * * * * * * * * //

solvers
{
    alpha.water
    {
        nAlphaCorr      1;
        nAlphaSubCycles 1;
        cAlpha          1;
    }

    pcorr
    {
        solver          PCG;
        preconditioner
        {
            preconditioner  GAMG;
            tolerance       1e-05;
            relTol          0;
            smoother        DICGaussSeidel;
        }
        tolerance       1e-05;
        relTol          0;
        maxIter         900;
    }

    ".*(rho|rhoFinal)"
    {
        solver          diagonal;
    }

    p_rgh
    {
        //solver          GAMG;
        solver          PCG;
        preconditioner
        {
            preconditioner  DIC;
            tolerance       1e-05;
            relTol          0;
            smoother        DICGaussSeidel;
        }
 
        tolerance       1e-09;
        relTol          0.01;
        smoother        DIC;
        maxIter        900;
    }

    p_rghFinal
    {
        solver          PCG;
        preconditioner
        {
            preconditioner  GAMG;
            tolerance       1e-09;
            relTol          0;
            nVcycles        2;
            smoother        DICGaussSeidel;
            nPreSweeps      2;
        }
        tolerance       1e-07;
        relTol          0;
        maxIter         900;
    }

    U
    {
        solver          smoothSolver;
        smoother        GaussSeidel;
        tolerance       1e-06;
        relTol          0;
        nSweeps         1;
    }

    "(T|k|B|nuTilda).*"
    {
        solver          smoothSolver;
        smoother        symGaussSeidel;
        tolerance       1e-08;
        relTol          0;
    }
}

PIMPLE
{
    momentumPredictor no;
    transonic       no;
    nOuterCorrectors 1;
    nCorrectors     2;
    nNonOrthogonalCorrectors 0;
}


// ************************************************************************* //
