/*--------------------------------*- C++ -*----------------------------------*\
| =========                 |                                                 |
| \\      /  F ield         | OpenFOAM: The Open Source CFD Toolbox           |
|  \\    /   O peration     | Version:  3.0.x                                 |
|   \\  /    A nd           | Web:      www.OpenFOAM.org                      |
|    \\/     M anipulation  |                                                 |
\*---------------------------------------------------------------------------*/
FoamFile
{
    version     2.0;
    format      ascii;
    class       volScalarField;
    location    "0";
    object      p;
}
// * * * * * * * * * * * * * * * * * * * * * * * * * * * * * * * * * * * * * //

dimensions      [0 0 0 1 0 0 0];

internalField   uniform 293.15;

boundaryField
{
    walls
    {
        type            zeroGradient;
    }
    outlet
    {
        type            zeroGradient;
    }
    inlet
    {
        type            fixedValue;
        value           uniform 1373.15;
    }
    atm
    {
        type            zeroGradient;
//        type            fixedValue;
//        value           uniform 298.15;
    }
    floor
    {
        type            externalWallHeatFluxTemperature;
        kappaMethod     fluidThermo;
        kappa     	fluidThermo;
        Ta              uniform 293.15;
        h               uniform 30.0;
        //thicknessLayers (0.1);
        //kappaLayers     (1.8);
        value           uniform 293.15;
        kappaName       kappa;
        QrName          none;
    }

    frontAndBack
    {
        type            empty;
    }
}


// ************************************************************************* //
